212
1000 1000 1000
Ar 0.1339999958872795 -3.944999873638153 -1.3500000536441803
Ar 1.1729999631643295 -1.5719999372959137 -1.1810000240802765
Ar 3.968999981880188 -6.891000270843506 -2.298000007867813
Ar 4.677000045776367 -2.214999943971634 -4.3470001220703125
Ar 5.97599983215332 1.3189999759197235 -2.094999998807907
Ar 8.349999785423279 -5.335000157356262 -4.806999862194061
Ar 9.484000205993652 -0.41099999099969864 -3.6660000681877136
Ar 9.0829998254776 0.12799999676644802 -1.2290000170469284
Ar 13.68899941444397 -2.6269999146461487 -4.499000012874603
Ar 13.686000108718872 0.989999994635582 -0.5460000038146973
Ar 12.631000280380249 0.29500000178813934 1.581999957561493
Ar 18.035999536514282 -0.966000035405159 -1.3670000433921814
Ar 16.677000522613525 0.5869999900460243 3.402000069618225
Ar 15.01099944114685 -0.7169999927282333 4.814999997615814
Ar 20.89900016784668 -1.7350000143051147 4.320000112056732
Ar 17.302000522613525 -2.18299999833107 8.086000084877014
Ar 15.756000280380249 -4.1440001130104065 7.642999887466431
Ar 21.475000381469727 -4.0630000829696655 9.581999778747559
Ar 17.25499987602234 -6.32099986076355 11.848000288009644
Ar 14.448000192642212 -9.223999977111816 10.02500057220459
Ar 21.231000423431396 -8.409000039100647 13.579000234603882
Ar 17.21400022506714 -11.749999523162842 12.568999528884888
Ar 16.682000160217285 -12.226999998092651 10.17799973487854
Ar 21.16499900817871 -13.986999988555908 14.215999841690063
Ar 18.473999500274658 -16.51800036430359 10.111000537872314
Ar 17.194000482559204 -15.958000421524048 5.913000106811523
Ar 22.655000686645508 -18.270000219345093 12.29699969291687
Ar 23.642001152038574 -18.171000480651855 7.488999962806702
Ar 22.5600004196167 -19.888999462127686 5.9579998254776
Ar 25.39299964904785 -14.092999696731567 8.180999755859375
Ar 29.1729998588562 -18.020000457763672 7.641000151634216
Ar 25.973000526428223 -20.376999378204346 5.537999868392944
Ar 28.59600067138672 -15.607000589370728 3.3649998903274536
Ar 25.74700117111206 -17.688000202178955 -0.16200000420212746
Ar 24.92300033569336 -16.230000257492065 -4.131999909877777
Ar 29.837000370025635 -20.408000946044922 0.006000000284984708
Ar 29.38999891281128 -21.661999225616455 5.0050002336502075
Ar 27.93600082397461 -23.71299982070923 5.115000009536743
Ar 33.668999671936035 -23.206000328063965 3.375999927520752
Ar 31.15000009536743 -26.380000114440918 6.478999853134155
Ar 29.419000148773193 -27.708001136779785 5.3450000286102295
Ar 35.452001094818115 -28.294999599456787 5.885000228881836
Ar 31.693999767303467 -31.926000118255615 6.765999794006348
Ar 30.17199993133545 -32.363998889923096 4.76500004529953
Ar 35.93800067901611 -33.921000957489014 6.161999702453613
Ar 31.761999130249023 -36.51400089263916 4.244999885559082
Ar 31.080000400543213 -35.613999366760254 2.063000053167343
Ar 35.70800065994263 -39.144999980926514 3.8100001215934753
Ar 32.1589994430542 -40.426998138427734 0.08500000461935997
Ar 30.794999599456787 -37.92999982833862 -3.215000033378601
Ar 36.017000675201416 -43.20899963378906 -0.5330000072717667
Ar 33.34100008010864 -40.60100078582764 -4.702000021934509
Ar 32.953999042510986 -36.80299997329712 -6.850000023841858
Ar 36.75600051879883 -43.136000633239746 -7.028999924659729
Ar 35.1419997215271 -38.49600076675415 -9.182000160217285
Ar 36.32800102233887 -36.484999656677246 -8.219000101089478
Ar 38.1879997253418 -40.99299907684326 -12.028000354766846
Ar 38.8949990272522 -35.57600021362305 -12.137000560760498
Ar 40.57600021362305 -32.530999183654785 -9.315000176429749
Ar 41.84999942779541 -37.46299982070923 -15.370999574661255
Ar 43.2390022277832 -32.23900079727173 -13.360999822616577
Ar 44.75800037384033 -29.35800075531006 -10.354000329971313
Ar 47.20900058746338 -33.380000591278076 -16.052000522613525
Ar 48.11800003051758 -29.795000553131104 -12.60599970817566
Ar 48.07700157165527 -30.40299892425537 -10.219999551773071
Ar 50.362000465393066 -27.41300106048584 -15.928000211715698
Ar 50.671000480651855 -23.00100088119507 -13.862999677658081
Ar 53.456997871398926 -21.65600061416626 -10.743999481201172
Ar 49.671998023986816 -21.033999919891357 -17.87999987602234
Ar 46.66299819946289 -23.387999534606934 -20.99600076675415
Ar 47.70100116729736 -23.375999927520752 -23.25700044631958
Ar 43.07799816131592 -24.196999073028564 -18.115999698638916
Ar 45.269999504089355 -26.960999965667725 -13.866000175476074
Ar 47.753000259399414 -25.501999855041504 -10.61400055885315
Ar 40.48600196838379 -26.912999153137207 -14.407999515533447
Ar 42.7269983291626 -26.558001041412354 -9.577999711036682
Ar 45.64300060272217 -23.70800018310547 -7.989000082015991
Ar 37.8439998626709 -26.487998962402344 -9.424999952316284
Ar 36.95499897003174 -30.764999389648438 -12.158000469207764
Ar 36.66399955749512 -32.829999923706055 -10.735000371932983
Ar 32.86600112915039 -28.16200017929077 -12.3580002784729
Ar 32.46500015258789 -33.475000858306885 -11.622999906539917
Ar 32.97499895095825 -34.140000343322754 -9.301999807357788
Ar 28.064000606536865 -31.937999725341797 -12.49500036239624
Ar 28.67000102996826 -35.76499938964844 -8.439000248908997
Ar 29.881000518798828 -35.71500062942505 -6.276000142097473
Ar 24.16599988937378 -34.440999031066895 -7.605000138282776
Ar 25.971999168395996 -38.30499887466431 -4.189000129699707
Ar 28.26900005340576 -38.1220006942749 -0.5139999836683273
Ar 21.530001163482666 -36.69899940490723 -3.222000002861023
Ar 24.746999740600586 -37.708001136779785 1.0570000112056732
Ar 27.644999027252197 -35.11499881744385 3.1150001287460327
Ar 20.39799928665161 -36.10100030899048 2.4269999563694
Ar 24.595000743865967 -34.78600025177002 5.324000120162964
Ar 27.039999961853027 -31.23800039291382 5.568000078201294
Ar 20.896000862121582 -33.3270001411438 8.026000261306763
Ar 25.201001167297363 -30.50100088119507 9.318000078201294
Ar 26.584999561309814 -26.881000995635986 7.078999876976013
Ar 21.494998931884766 -29.549999237060547 12.051999568939209
Ar 23.859999179840088 -25.536999702453613 9.677000045776367
Ar 23.33400011062622 -24.321999549865723 5.497999787330627
Ar 21.11799955368042 -24.630000591278076 13.667999505996704
Ar 18.255000114440918 -21.779000759124756 10.65600037574768
Ar 17.771999835968018 -22.17600107192993 8.258000016212463
Ar 17.245999574661255 -19.364999532699585 14.361000061035156
Ar 12.412999868392944 -20.980000495910645 16.7739999294281
Ar 11.619999408721924 -20.632998943328857 19.05500054359436
Ar 13.428000211715698 -24.054999351501465 13.57200026512146
Ar 12.990000247955322 -21.14300012588501 9.172999858856201
Ar 13.214000463485718 -18.710999488830566 8.726999759674072
Ar 12.803000211715698 -25.085999965667725 7.351999878883362
Ar 10.204999446868896 -22.51499891281128 3.8350000977516174
Ar 11.743999719619751 -20.694000720977783 2.9600000381469727
Ar 12.232999801635742 -26.709001064300537 2.1809999644756317
Ar 14.026000499725342 -22.197999954223633 0.2940000034868717
Ar 15.763000249862671 -21.18000030517578 1.7149999737739563
Ar 15.934000015258789 -25.5049991607666 -2.556000053882599
Ar 18.95799994468689 -21.410000324249268 -1.3429999351501465
Ar 20.9089994430542 -20.947999954223633 2.492000013589859
Ar 21.096999645233154 -24.13599967956543 -4.830000102519989
Ar 23.954999446868896 -22.755000591278076 -0.6719999760389328
Ar 23.073999881744385 -23.789000511169434 1.4059999585151672
Ar 26.584999561309814 -25.267999172210693 -4.163999855518341
Ar 26.108999252319336 -20.48099994659424 -6.414999961853027
Ar 27.2760009765625 -18.350000381469727 -5.649999976158142
Ar 29.056999683380127 -22.404000759124756 -9.758999943733215
Ar 29.117000102996826 -17.141000032424927 -9.718999862670898
Ar 31.203999519348145 -14.452999830245972 -7.006000280380249
Ar 31.858999729156494 -18.756999969482422 -13.351999521255493
Ar 33.118999004364014 -14.158999919891357 -11.220999956130981
Ar 34.85300064086914 -13.40000033378601 -7.293999791145325
Ar 36.347999572753906 -15.056999921798706 -14.551000595092773
Ar 37.98500061035156 -12.446000576019287 -10.048999786376953
Ar 39.065001010894775 -13.945000171661377 -6.011000275611877
Ar 41.86999797821045 -12.864999771118164 -12.861000299453735
Ar 42.4429988861084 -12.74399995803833 -7.630000114440918
Ar 42.153000831604004 -16.396000385284424 -5.001000165939331
Ar 46.94300174713135 -12.84500002861023 -9.419000148773193
Ar 46.153998374938965 -15.410000085830688 -5.016999840736389
Ar 44.984002113342285 -19.560999870300293 -4.675000011920929
Ar 51.01600170135498 -14.996000528335571 -5.491999983787537
Ar 48.917999267578125 -19.52299952507019 -4.002000093460083
Ar 47.94099807739258 -20.59999942779541 -6.134999990463257
Ar 53.70999813079834 -19.972000122070312 -3.321000039577484
Ar 51.040000915527344 -24.170000553131104 -4.839000105857849
Ar 50.12700080871582 -24.049999713897705 -7.228999733924866
Ar 55.781002044677734 -24.85100030899048 -3.5830000042915344
Ar 57.61199951171875 -24.647998809814453 -8.698999881744385
Ar 57.529001235961914 -22.678000926971436 -10.205999612808228
Ar 59.1510009765625 -28.842999935150146 -8.628000020980835
Ar 54.749999046325684 -30.097999572753906 -11.052999496459961
Ar 53.77999782562256 -28.64300012588501 -12.835999727249146
Ar 55.711002349853516 -34.30999994277954 -9.819999933242798
Ar 53.39200019836426 -31.910998821258545 -5.360000133514404
Ar 51.27799987792969 -31.833999156951904 -9.261999726295471
Ar 51.4109992980957 -36.41499996185303 -5.188999772071838
Ar 48.44099998474121 -32.68500089645386 -3.546000123023987
Ar 49.97200012207031 -28.598999977111816 -3.871999979019165
Ar 46.04599952697754 -34.98800039291382 -0.8269999921321869
Ar 46.38700008392334 -29.67600107192993 -1.6750000417232513
Ar 46.83300018310547 -26.119000911712646 -4.169999957084656
Ar 41.535000801086426 -30.076000690460205 -0.786999985575676
Ar 43.796000480651855 -25.17699956893921 -2.185000032186508
Ar 44.096999168395996 -23.371999263763428 -3.90500009059906
Ar 40.46800136566162 -24.505000114440918 1.2470000237226486
Ar 43.119001388549805 -20.241000652313232 0.23099999874830246
Ar 42.63899803161621 -19.256999492645264 -1.9930000603199005
Ar 39.82599973678589 -19.150999784469604 3.310999870300293
Ar 41.03600025177002 -15.21299958229065 0.010999999940395355
Ar 40.08900165557861 -15.633000135421753 -2.311999946832657
Ar 38.01199913024902 -13.2669997215271 3.091999888420105
Ar 38.02000045776367 -11.25499963760376 -1.9210000336170197
Ar 36.77500009536743 -12.812999486923218 -3.537999987602234
Ar 35.132999420166016 -8.50600004196167 0.7739999890327454
Ar 33.53499889373779 -9.337000250816345 -4.19299989938736
Ar 32.936999797821045 -11.722999811172485 -4.629000127315521
Ar 30.267999172210693 -6.736999750137329 -1.8150000274181366
Ar 28.478999137878418 -9.926999807357788 -5.802000164985657
Ar 28.160998821258545 -14.33500051498413 -5.9460002183914185
Ar 24.786999225616455 -7.512000203132629 -3.767000138759613
Ar 22.535998821258545 -12.67799973487854 -4.171999990940094
Ar 21.774001121520996 -16.56499981880188 -2.3499999940395355
Ar 18.415000438690186 -10.11199951171875 -4.156000018119812
Ar 18.200000524520874 -15.30500054359436 -3.2170000672340393
Ar 18.835999965667725 -15.769000053405762 -0.8370000123977661
Ar 13.729000091552734 -13.50100040435791 -3.497999906539917
Ar 14.702999591827393 -16.888999938964844 0.5550000071525574
Ar 16.01699948310852 -15.816999673843384 2.3989999294281006
Ar 10.144000053405762 -15.664000511169434 0.35999998450279236
Ar 11.978000402450562 -16.612999439239502 5.386999845504761
Ar 14.814000129699707 -14.19100046157837 7.602999806404114
Ar 7.4070000648498535 -15.174000263214111 5.17300009727478
Ar 10.430999994277954 -13.803999423980713 9.312000274658203
Ar 12.062000036239624 -12.014000415802002 8.687999844551086
Ar 5.9710001945495605 -11.648000478744507 9.605000019073486
Ar 10.019999742507935 -8.863000273704529 11.296000480651855
Ar 12.927999496459961 -6.287999749183655 9.345999956130981
Ar 6.043000221252441 -6.252999901771545 11.923999786376953
Ar 10.462000370025635 -3.3539998531341553 11.875
Ar 12.616000175476074 -2.1639999747276306 8.233000040054321
Ar 6.797000169754028 -0.272000003606081 12.188999652862549
Ar 10.992000102996826 1.6030000150203705 9.779999852180481
Ar 11.875 0.8370000123977661 5.550000071525574
Ar 7.688999772071838 5.095000267028809 10.27999997138977
Ar 10.484999418258667 5.051000118255615 5.712000131607056
Ar 9.603000283241272 2.7090001106262207 2.1240000426769257
Ar 7.312999963760376 8.812999725341797 5.411999821662903
Ar 8.076000213623047 6.218000054359436 0.966000035405159
Ar 6.607999801635742 4.153999984264374 1.0019999742507935
Ar 4.936000108718872 9.603999853134155 -0.34299999475479126
Ar 4.216000139713287 6.065000295639038 -3.8760000467300415
Ar 2.628999948501587 2.1860000491142273 -2.4320000410079956
